6
-960.327378778381
C         -0.000087851807         -0.000284843195         -0.001751944425
H         -0.000175066052         -0.864990877824         -0.640902980201
H         -0.000002008928         -0.121455526247          1.066446425650
Cl         2.338164371138          0.000710649776          0.001481345562
H         -0.000086293800          0.984960233612         -0.432153643779
Cl        -2.338343150551          0.000892363884          0.001867797194
6
-960.327814890190
C 	  -0.048595919690	  -0.000282947364	  -0.001747891905
H 	  -0.002806078014	  -0.864990705686	  -0.640902925728
H 	   0.000361427593	  -0.121455436103	   1.066446189160
Cl	   2.346524904741	   0.000725918140	   0.001506551238
H 	  -0.000421625533	   0.984960247497	  -0.432153718152
Cl	  -2.329982515320	   0.000876436983	   0.001841208234
6
-960.329354805458 
C 	  -0.103892235986	  -0.000303161657	  -0.001796558750
H 	  -0.005884779925	  -0.863723472688	  -0.639908284619
H 	  -0.000339352623	  -0.121416167229	   1.064394677256
Cl	   2.356124763725	   0.000747935371	   0.001546672737
H 	  -0.001999586122	   0.983177845129	  -0.431532571344
Cl	  -2.320452345459	   0.000875072301	   0.001830345221
6
-960.331638710609 
C 	  -0.153984194271	  -0.000332180557	  -0.001835661096
H 	  -0.011132017532	  -0.860250260290	  -0.637293030381
H 	  -0.006880274899	  -0.121106046807	   1.059368895206
Cl	   2.364377136629	   0.000761207263	   0.001570742526
H 	  -0.008289643005	   0.978725764492	  -0.429825143571
Cl	  -2.310994009222	   0.000891032354	   0.001839957692
6
-960.335585787564  
C 	  -0.221616431234	  -0.000382048757	  -0.001870452870
H 	  -0.020499858065	  -0.854667576038	  -0.633028084132
H 	  -0.017171473388	  -0.120367279022	   1.052454187826
Cl	   2.374728469160	   0.000769096311	   0.001589182558
H 	  -0.018997956764	   0.972319972870	  -0.426952286239
Cl	  -2.297261285305	   0.000902686925	   0.001827027116
6
-960.339396874218
C 	  -0.280636453072	  -0.000427294992	  -0.001890060297
H 	  -0.037331252942	  -0.847668235808	  -0.627939744942
H 	  -0.035784342831	  -0.119340210390	   1.043915154429
Cl	   2.384130275933	   0.000772918683	   0.001601582183
H 	  -0.037006054384	   0.964526523181	  -0.423558491713
Cl	  -2.284869100224	   0.000907677331	   0.001822995911
6
-960.343846214431 
C 	  -0.360159066702	  -0.000407871455	  -0.001791237014
H 	  -0.059520117564	  -0.839047282295	  -0.621589984879
H 	  -0.055612591598	  -0.117860846133	   1.034026573052
Cl	   2.397738678256	   0.000777105769	   0.001607583185
H 	  -0.057263810393	   0.955205633042	  -0.419119710634
Cl	  -2.269393519006	   0.000874361204	   0.001757145036
6
-960.345232547272
C 	  -0.394239251211	  -0.000417291929	  -0.001746578180
H 	  -0.091077080147	  -0.832777065663	  -0.617036113267
H 	  -0.089753796405	  -0.117114522778	   1.025336175297
Cl	   2.406957315171	   0.000792690684	   0.001611364037
H 	  -0.089564058504	   0.947251761592	  -0.415972442380
Cl	  -2.264092735595	   0.000889023544	   0.001766550000
6
-960.345997104187 
C 	  -0.426480401840	  -0.000501918977	  -0.001742691291
H 	  -0.088098665310	  -0.832471371885	  -0.616637829572
H 	  -0.081655590778	  -0.117193546065	   1.025275260887
Cl	   2.417484390491	   0.000825706588	   0.001634345964
H 	  -0.083367765758	   0.946760763999	  -0.415694107414
Cl	  -2.264053672625	   0.000892666550	   0.001724489242
6
-960.346536467264
C 	  -0.439078479169	  -0.000726358693	  -0.001829232164
H 	  -0.110416195857	  -0.830281332338	  -0.614910208875
H 	  -0.102270574645	  -0.117246882633	   1.021528302939
Cl	   2.429865568268	   0.000879860412	   0.001671399708
H 	  -0.104930844718	   0.943221799679	  -0.414559258849
Cl	  -2.270252857433	   0.000955946108	   0.001742624621
6
-960.347203761159
C 	  -0.455951606324	  -0.001392975453	  -0.002683504662
H 	  -0.117341653843	  -0.830870645039	  -0.616394181591
H 	  -0.118543780781	  -0.118167356955	   1.019301584073
Cl	   2.452111644048	   0.000996208943	   0.001810785967
H 	  -0.115631242091	   0.941700327122	  -0.416074024292
Cl	  -2.285731715233	   0.001155718340	   0.002046993738
6
-960.347654820405  
C 	  -0.468616187515	  -0.001458246951	  -0.002827606438
H 	  -0.133604156773	  -0.831066906394	  -0.616566468199
H 	  -0.127300246656	  -0.117903283069	   1.020355820507
Cl	   2.469771862905	   0.000989269850	   0.001870213348
H 	  -0.131025825744	   0.942990144328	  -0.416251747179
Cl	  -2.297881179537	   0.001145928395	   0.002016720409
6
-960.348620206041
C 	  -0.506299825201	  -0.000741517904	  -0.006690115689
H 	  -0.168773475127	  -0.829549863231	  -0.621280692439
H 	  -0.154476565592	  -0.116793050986	   1.013948087739
Cl	   2.523861917431	   0.000853872730	   0.002657433678
H 	  -0.166967895388	   0.943276420948	  -0.421316044616
Cl	  -2.336206906058	   0.000951400505	   0.003021466890
6
-960.348855815782 
C 	  -0.520902780644	  -0.000985733817	  -0.006802659549
H 	  -0.183288037969	  -0.830335350963	  -0.620759801509
H 	  -0.172630056455	  -0.117431353114	   1.014769452876
Cl	   2.543643564470	   0.000929516960	   0.002629556886
H 	  -0.178977741586	   0.942705825097	  -0.420635320479
Cl	  -2.349689719868	   0.001017041517	   0.003029660916
6
-960.349151836754 
C 	  -0.548440244590	  -0.004591615666	  -0.005694091804
H 	  -0.211708240670	  -0.834851316178	  -0.619497285597
H 	  -0.200164898874	  -0.122233116829	   1.016212149865
Cl	   2.582169324126	   0.001607320643	   0.002443555703
H 	  -0.201663227053	   0.937979130956	  -0.418914476213
Cl	  -2.376499182556	   0.001981410765	   0.002707681345
6
-960.349263560344
C 	  -0.574063321883	  -0.011522710175	  -0.003991280058
H 	  -0.238473632499	  -0.842688688776	  -0.617801995867
H 	  -0.225785843867	  -0.130739934575	   1.018032339670
Cl	   2.618527243820	   0.002854527494	   0.002157067943
H 	  -0.220646240710	   0.929291409624	  -0.416378194019
Cl	  -2.402007311182	   0.003834131792	   0.002235412215
6
-960.349273732321 
C 	  -0.583232109303	  -0.006648263875	  -0.003648160948
H 	  -0.244255874464	  -0.836643169866	  -0.617160964626
H 	  -0.234143510495	  -0.124676861513	   1.018310306244
Cl	   2.630879772235	   0.001992876868	   0.002106825129
H 	  -0.233348013305	   0.935367173312	  -0.416217146604
Cl	  -2.410439860623	   0.002498970154	   0.002136781802
6
-960.349274005311
C 	  -0.585090576913	  -0.002823209491	  -0.005477108378
H 	  -0.244462986430	  -0.832000320136	  -0.619222452594
H 	  -0.234181808763	  -0.119678978465	   1.015988873269
Cl	   2.633558010378	   0.001309028770	   0.002434160141
H 	  -0.238842415477	   0.940270276187	  -0.418713903385
Cl	  -2.412314917198	   0.001451040124	   0.002635349797
6
-960.349274089372
C 	  -0.584451411866	  -0.003684205492	  -0.005062123138
H 	  -0.243913481916	  -0.832979118675	  -0.618703153157
H 	  -0.234043274528	  -0.120751051443	   1.016546397552
Cl	   2.632619808025	   0.001214353370	   0.002048466266
H 	  -0.237253054870	   0.939171738679	  -0.418084604403
Cl	  -2.411681693771	   0.001512446043	   0.002281323470
