6
-960.327378778381
C 	  -0.000087851807	  -0.000284843195	  -0.001751944425
H 	  -0.000175066052	  -0.864990877824	  -0.640902980201
H 	  -0.000002008928	  -0.121455526247	   1.066446425650
Cl	   2.338164371138	   0.000710649776	   0.001481345562
H 	  -0.000086293800	   0.984960233612	  -0.432153643779
Cl	  -2.338343150551	   0.000892363884	   0.001867797194
6
-960.327814899307
C 	   0.048420216076	  -0.000286739026	  -0.001755996945
H 	   0.002455945910	  -0.864991049962	  -0.640903034674
H 	  -0.000365445449	  -0.121455616391	   1.066446662140
Cl	   2.329803837535	   0.000695381412	   0.001456139886
H 	   0.000249037933	   0.984960219727	  -0.432153569406
Cl	  -2.346703785782	   0.000908290785	   0.001894386154
6
-960.329354910304 
C 	   0.103717652690	  -0.000311204799	  -0.001813713433
H 	   0.005533118971	  -0.863724141922	  -0.639908491251
H 	   0.000328622132	  -0.121416765304	   1.064395407480
Cl	   2.320273571495	   0.000694769949	   0.001446788616
H 	   0.001826683355	   0.983177577621	  -0.431532562267
Cl	  -2.356303686430	   0.000931042061	   0.001936100835
6
-960.331638599217 
C 	   0.153803690615	  -0.000344048859	  -0.001860886993
H 	   0.010780514733	  -0.860250995151	  -0.637294200232
H 	   0.006861045083	  -0.121107060161	   1.059367660269
Cl	   2.310816328646	   0.000711458462	   0.001457898013
H 	   0.008117137900	   0.978725012203	  -0.429826494583
Cl	  -2.364554892140	   0.000944925977	   0.001961567032
6
-960.335585852337
C 	   0.221438076397	  -0.000399239858	  -0.001907245882
H 	   0.020150752829	  -0.854668658517	  -0.633031874460
H 	   0.017153775301	  -0.120368620591	   1.052448751498
Cl	   2.297083201397	   0.000724167639	   0.001447390359
H 	   0.018824808590	   0.972318420735	  -0.426956418195
Cl	  -2.374906653444	   0.000953629535	   0.001981830301
6
-960.339397342649
C 	   0.280464522227	  -0.000448999650	  -0.001936992557
H 	   0.036982321544	  -0.847670429384	  -0.627946127807
H 	   0.035764761577	  -0.119343064360	   1.043906668098
Cl	   2.284689646760	   0.000730140622	   0.001445462907
H 	   0.036836031695	   0.964522896221	  -0.423565341553
Cl	  -2.384309335948	   0.000958153622	   0.001995846535
6
-960.343846097812  
C 	   0.359976293910	  -0.000435377125	  -0.001851766714
H 	   0.059175155179	  -0.839050198414	  -0.621601052742
H 	   0.055597465216	  -0.117864177850	   1.034014441802
Cl	   2.269215639765	   0.000697865684	   0.001382332680
H 	   0.057091097600	   0.955202176243	  -0.419131149294
Cl	  -2.397915757196	   0.000963319898	   0.002004165348
6
-960.345233010483 
C 	   0.394072818287	  -0.000447191317	  -0.001813171131
H 	   0.090725242764	  -0.832782839691	  -0.617051410752
H 	   0.089727252780	  -0.117121455816	   1.025318401331
Cl	   2.263913028362	   0.000713010937	   0.001392620091
H 	   0.089396744176	   0.947244506386	  -0.415988560667
Cl	  -2.407137801742	   0.000979538966	   0.002009563831
6
-960.345997391050 
C 	   0.426322231691	  -0.000534074100	  -0.001814799942
H 	   0.087764101058	  -0.832474210444	  -0.616652094290
H 	   0.081643240790	  -0.117198200090	   1.025256875555
Cl	   2.263877321316	   0.000716368426	   0.001350671544
H 	   0.083190027147	   0.946754746675	  -0.415709293062
Cl	  -2.417671674918	   0.001013428510	   0.002034287304
6
-960.346536614484
C 	   0.438904721964	  -0.000759416053	  -0.001903517136
H 	   0.110087514849	  -0.830288131073	  -0.614929049420
H 	   0.102262742551	  -0.117254438762	   1.021507495099
Cl	   2.270076521045	   0.000779259197	   0.001367786885
H 	   0.104764890796	   0.943213230354	  -0.414578225619
Cl	  -2.430048158132	   0.001068552061	   0.002073418589
6
-960.347202878716  
C 	   0.455749985719	  -0.001428212287	  -0.002758467720
H 	   0.116989174829	  -0.830884616093	  -0.616414400039
H 	   0.118532603407	  -0.118179344305	   1.019285969509
Cl	   2.285528054544	   0.000978132968	   0.001669158989
H 	   0.115443614402	   0.941693232207	  -0.416093953013
Cl	  -2.452255940997	   0.001186838895	   0.002215952317
6
-960.347654262890   
C 	   0.468420819348	  -0.001495054197	  -0.002906786951
H 	   0.133245655010	  -0.831076394861	  -0.616593092366
H 	   0.127245311257	  -0.117913268674	   1.020327440573
Cl	   2.297686045616	   0.000967499244	   0.001637373670
H 	   0.130839740345	   0.942979285927	  -0.416278712286
Cl	  -2.469925441959	   0.001181204071	   0.002279094277
6
-960.348618464329   
C 	   0.506026278549	  -0.000778107298	  -0.006745285703
H 	   0.168321073210	  -0.829559013457	  -0.621271810552
H 	   0.154413524800	  -0.116800687657	   1.013965607080
Cl	   2.335934237656	   0.000769149599	   0.002627790484
H 	   0.166701472104	   0.943269179204	  -0.421305399955
Cl	  -2.523905878821	   0.001049372267	   0.003068974678
6
-960.348854809602
C 	   0.520653250963	  -0.001027678402	  -0.006862432014
H 	   0.182874097985	  -0.830353603854	  -0.620758525684
H 	   0.172567543051	  -0.117449081631	   1.014775321101
Cl	   2.349445487727	   0.000834935001	   0.002634381763
H 	   0.178729119240	   0.942690250174	  -0.420632781766
Cl	  -2.543725840578	   0.001127503174	   0.003045068644
6
-960.349152171873
C 	   0.548310447167	  -0.004612817575	  -0.005727702748
H 	   0.211325741575	  -0.834830026516	  -0.619453496128
H 	   0.200234409871	  -0.122216586181	   1.016251235223
Cl	   2.376368719826	   0.001790936960	   0.002299712467
H 	   0.201529862527	   0.937990099664	  -0.418874564055
Cl	  -2.582414490250	   0.001803664019	   0.002859519796
6
-960.349263616586  
C 	   0.573931478066	  -0.011674708240	  -0.003989213120
H 	   0.238211697846	  -0.842842391705	  -0.617726686558
H 	   0.225912309281	  -0.130893909806	   1.018121495063
Cl	   2.401878260705	   0.003676633178	   0.001812555056
H 	   0.220412970870	   0.929139768901	  -0.416289772558
Cl	  -2.618775356824	   0.003077424019	   0.002571927462
6
-960.349273681375
C 	   0.583021955249	  -0.006791139324	  -0.003758237091
H 	   0.243946626391	  -0.836786119263	  -0.617216438170
H 	   0.234087346943	  -0.124812849114	   1.018254010129
Cl	   2.410231303584	   0.002338154689	   0.001742793269
H 	   0.233072369566	   0.935222805407	  -0.416272360456
Cl	  -2.631013657206	   0.002214921757	   0.002543400242
6
-960.349273962572 
C 	   0.584932832733	  -0.002867790831	  -0.005600196423
H 	   0.244153440362	  -0.832023921172	  -0.619289321903
H 	   0.234168170234	  -0.119688520385	   1.015918392969
Cl	   2.412160284963	   0.001263121426	   0.002244519844
H 	   0.238708863184	   0.940252526848	  -0.418794451944
Cl	  -2.633769117437	   0.001513712863	   0.002873509264
6
-960.349274053074
C 	   0.584269968812	  -0.003755373974	  -0.005147543069
H 	   0.243565174881	  -0.833031375011	  -0.618721073658
H 	   0.234046889368	  -0.120793852950	   1.016527250666
Cl	   2.411502683458	   0.001319878584	   0.001861008014
H 	   0.237056908418	   0.939120587898	  -0.418111311730
Cl	  -2.632795812979	   0.001408672671	   0.002456956203
